* SPICE3 file created from carry_select_adder.ext - technology: sky130A

V17 cin0 GND 0
V18 cin1 GND 1.8
vdd vdd GND 1.8
V1 a0 GND PULSE(1.8 0 0 .1n .1n 80 90n 1)
V2 a1 GND PULSE(1.8 0 0 .1n .1n 40n 80n 2)
V3 a2 GND PULSE(1.8 0 0 .1n .1n 20n 40n 3)
V4 a3 GND PULSE(1.8 0 0 .1n .1n 10n 20n 4)
V5 a4 GND PULSE(0 1.8 0 .1n .1n 80 90n 1)
V6 a5 GND PULSE(0 1.8 0 .1n .1n 40n 80n 2)
V7 a6 GND PULSE(0 1.8 0 .1n .1n 20n 40n 3)
V8 a7 GND PULSE(0 1.8 0 .1n .1n 10n 20n 4)
V9 b0 GND PULSE(1.8 0 0 .1n .1n 80 90n 1)
V10 b1 GND PULSE(1.8 0 0 .1n .1n 40n 80n 2)
V11 b2 GND PULSE(1.8 0 0 .1n .1n 20n 40n 3)
V12 b3 GND PULSE(1.8 0 0 .1n .1n 10n 20n 4)
V13 b4 GND PULSE(0 1.8 0 .1n .1n 80 90n 1)
V14 b5 GND PULSE(0 1.8 0 .1n .1n 40n 80n 2)
V15 b6 GND PULSE(0 1.8 0 .1n .1n 20n 40n 3)
V16 b7 GND PULSE(0 1.8 0 .1n .1n 10n 20n 4)



.lib /usr/local/share/pdk/sky130A/libs.tech/ngspice/sky130.lib.spice tt
.tran .02ns 80ns
.save all


X0 full_adder_10/a_3550_n440# full_adder_10/a_3010_n440# vdd vdd sky130_fd_pr__pfet_01v8 ad=0.315 pd=2.5 as=0.315 ps=2.5 w=0.9 l=0.15
X1 full_adder_10/a_760_n530# b6 gnd gnd sky130_fd_pr__nfet_01v8 ad=0.315 pd=2.5 as=0.315 ps=2.5 w=0.9 l=0.15
X2 full_adder_10/a_510_n530# a6 full_adder_10/a_760_n530# gnd sky130_fd_pr__nfet_01v8 ad=0.315 pd=2.5 as=0.315 ps=2.5 w=0.9 l=0.15
X3 full_adder_10/a_10_40# b6 vdd vdd sky130_fd_pr__pfet_01v8 ad=0.63 pd=4.3 as=0.63 ps=4.3 w=1.8 l=0.15
X4 full_adder_10/a_3550_n440# full_adder_10/a_3010_n440# gnd gnd sky130_fd_pr__nfet_01v8 ad=0.1575 pd=1.6 as=0.1575 ps=1.6 w=0.45 l=0.15
X5 mux_2to1_2/in2 full_adder_10/a_3550_n440# gnd gnd sky130_fd_pr__nfet_01v8 ad=0.1575 pd=1.6 as=0.1575 ps=1.6 w=0.45 l=0.15
X6 full_adder_10/a_1260_40# full_adder_8/cout vdd vdd sky130_fd_pr__pfet_01v8 ad=0.63 pd=4.3 as=0.63 ps=4.3 w=1.8 l=0.15
X7 full_adder_10/a_2260_40# a6 vdd vdd sky130_fd_pr__pfet_01v8 ad=0.945 pd=6.1 as=0.945 ps=6.1 w=2.7 l=0.15
X8 full_adder_10/a_10_n530# b6 gnd gnd sky130_fd_pr__nfet_01v8 ad=0.315 pd=2.5 as=0.315 ps=2.5 w=0.9 l=0.15
X9 full_adder_10/a_510_n530# full_adder_8/cout full_adder_10/a_10_n530# gnd sky130_fd_pr__nfet_01v8 ad=0.315 pd=2.5 as=0.315 ps=2.5 w=0.9 l=0.15
X10 full_adder_10/a_510_n530# a6 full_adder_10/a_760_40# vdd sky130_fd_pr__pfet_01v8 ad=0.63 pd=4.3 as=0.63 ps=4.3 w=1.8 l=0.15
X11 full_adder_10/a_3010_n440# full_adder_10/a_2010_n530# vdd vdd sky130_fd_pr__pfet_01v8 ad=0.315 pd=2.5 as=0.315 ps=2.5 w=0.9 l=0.15
X12 mux_2to1_2/in2 full_adder_10/a_3550_n440# vdd vdd sky130_fd_pr__pfet_01v8 ad=0.315 pd=2.5 as=0.315 ps=2.5 w=0.9 l=0.15
X13 full_adder_11/cin full_adder_10/a_510_n530# vdd vdd sky130_fd_pr__pfet_01v8 ad=0.315 pd=2.5 as=0.315 ps=2.5 w=0.9 l=0.15
X14 full_adder_10/a_2010_n530# full_adder_8/cout full_adder_10/a_2510_n620# gnd sky130_fd_pr__nfet_01v8 ad=0.4725 pd=3.4 as=0.4725 ps=3.4 w=1.35 l=0.15
X15 full_adder_10/a_3010_n440# full_adder_10/a_2010_n530# gnd gnd sky130_fd_pr__nfet_01v8 ad=0.1575 pd=1.6 as=0.1575 ps=1.6 w=0.45 l=0.15
X16 full_adder_10/a_1260_40# a6 vdd vdd sky130_fd_pr__pfet_01v8 ad=0.63 pd=4.3 as=0.63 ps=4.3 w=1.8 l=0.15
X17 full_adder_10/a_510_n530# full_adder_8/cout full_adder_10/a_10_40# vdd sky130_fd_pr__pfet_01v8 ad=0.63 pd=4.3 as=0.63 ps=4.3 w=1.8 l=0.15
X18 full_adder_10/a_1260_n530# full_adder_8/cout gnd gnd sky130_fd_pr__nfet_01v8 ad=0.315 pd=2.5 as=0.315 ps=2.5 w=0.9 l=0.15
X19 full_adder_10/a_2010_n530# full_adder_10/a_510_n530# full_adder_10/a_1260_n530# gnd sky130_fd_pr__nfet_01v8 ad=0.315 pd=2.5 as=0.315 ps=2.5 w=0.9 l=0.15
X20 full_adder_10/a_2510_40# b6 full_adder_10/a_2260_40# vdd sky130_fd_pr__pfet_01v8 ad=0.945 pd=6.1 as=0.945 ps=6.1 w=2.7 l=0.15
X21 full_adder_10/a_2010_n530# full_adder_10/a_510_n530# full_adder_10/a_1260_40# vdd sky130_fd_pr__pfet_01v8 ad=0.63 pd=4.3 as=0.63 ps=4.3 w=1.8 l=0.15
X22 full_adder_10/a_2260_n620# a6 gnd gnd sky130_fd_pr__nfet_01v8 ad=0.4725 pd=3.4 as=0.4725 ps=3.4 w=1.35 l=0.15
X23 full_adder_10/a_2510_n620# b6 full_adder_10/a_2260_n620# gnd sky130_fd_pr__nfet_01v8 ad=0.4725 pd=3.4 as=0.4725 ps=3.4 w=1.35 l=0.15
X24 full_adder_11/cin full_adder_10/a_510_n530# gnd gnd sky130_fd_pr__nfet_01v8 ad=0.1575 pd=1.6 as=0.1575 ps=1.6 w=0.45 l=0.15
X25 full_adder_10/a_10_n530# a6 gnd gnd sky130_fd_pr__nfet_01v8 ad=0.315 pd=2.5 as=0.315 ps=2.5 w=0.9 l=0.15
X26 full_adder_10/a_10_40# a6 vdd vdd sky130_fd_pr__pfet_01v8 ad=0.63 pd=4.3 as=0.63 ps=4.3 w=1.8 l=0.15
X27 full_adder_10/a_1260_n530# a6 gnd gnd sky130_fd_pr__nfet_01v8 ad=0.315 pd=2.5 as=0.315 ps=2.5 w=0.9 l=0.15
X28 full_adder_10/a_1260_n530# b6 gnd gnd sky130_fd_pr__nfet_01v8 ad=0.315 pd=2.5 as=0.315 ps=2.5 w=0.9 l=0.15
X29 full_adder_10/a_760_40# b6 vdd vdd sky130_fd_pr__pfet_01v8 ad=0.63 pd=4.3 as=0.63 ps=4.3 w=1.8 l=0.15
X30 full_adder_10/a_1260_40# b6 vdd vdd sky130_fd_pr__pfet_01v8 ad=0.63 pd=4.3 as=0.63 ps=4.3 w=1.8 l=0.15
X31 full_adder_10/a_2010_n530# full_adder_8/cout full_adder_10/a_2510_40# vdd sky130_fd_pr__pfet_01v8 ad=0.945 pd=6.1 as=0.945 ps=6.1 w=2.7 l=0.15
X32 full_adder_11/a_3550_n440# full_adder_11/a_3010_n440# vdd vdd sky130_fd_pr__pfet_01v8 ad=0.315 pd=2.5 as=76.23 ps=536.4 w=0.9 l=0.15
X33 full_adder_11/a_760_n530# b7 gnd gnd sky130_fd_pr__nfet_01v8 ad=0.63 pd=5 as=40.635 ps=338.6 w=0.9 l=0.15
X34 full_adder_11/a_510_n530# a7 full_adder_11/a_760_n530# gnd sky130_fd_pr__nfet_01v8 ad=0.63 pd=5 as=0 ps=0 w=0.9 l=0.15
X35 full_adder_11/a_10_40# b7 vdd vdd sky130_fd_pr__pfet_01v8 ad=1.89 pd=12.9 as=0 ps=0 w=1.8 l=0.15
X36 full_adder_11/a_3550_n440# full_adder_11/a_3010_n440# gnd gnd sky130_fd_pr__nfet_01v8 ad=0.1575 pd=1.6 as=0 ps=0 w=0.45 l=0.15
X37 mux_2to1_3/in2 full_adder_11/a_3550_n440# gnd gnd sky130_fd_pr__nfet_01v8 ad=0.1575 pd=1.6 as=0 ps=0 w=0.45 l=0.15
X38 full_adder_11/a_1260_40# full_adder_11/cin vdd vdd sky130_fd_pr__pfet_01v8 ad=2.52 pd=17.2 as=0 ps=0 w=1.8 l=0.15
X39 full_adder_11/a_2260_40# a7 vdd vdd sky130_fd_pr__pfet_01v8 ad=1.89 pd=12.2 as=0 ps=0 w=2.7 l=0.15
X40 full_adder_11/a_10_n530# b7 gnd gnd sky130_fd_pr__nfet_01v8 ad=0.945 pd=7.5 as=0 ps=0 w=0.9 l=0.15
X41 full_adder_11/a_510_n530# full_adder_11/cin full_adder_11/a_10_n530# gnd sky130_fd_pr__nfet_01v8 ad=0 pd=0 as=0 ps=0 w=0.9 l=0.15
X42 full_adder_11/a_510_n530# a7 full_adder_11/a_760_40# vdd sky130_fd_pr__pfet_01v8 ad=1.26 pd=8.6 as=1.26 ps=8.6 w=1.8 l=0.15
X43 full_adder_11/a_3010_n440# full_adder_11/a_2010_n530# vdd vdd sky130_fd_pr__pfet_01v8 ad=0.315 pd=2.5 as=0 ps=0 w=0.9 l=0.15
X44 mux_2to1_3/in2 full_adder_11/a_3550_n440# vdd vdd sky130_fd_pr__pfet_01v8 ad=0.315 pd=2.5 as=0 ps=0 w=0.9 l=0.15
X45 mux_2to1_4/in2 full_adder_11/a_510_n530# vdd vdd sky130_fd_pr__pfet_01v8 ad=0.315 pd=2.5 as=0 ps=0 w=0.9 l=0.15
X46 full_adder_11/a_2010_n530# full_adder_11/cin full_adder_11/a_2510_n620# gnd sky130_fd_pr__nfet_01v8 ad=0.7875 pd=5.9 as=0.945 ps=6.8 w=1.35 l=0.15
X47 full_adder_11/a_3010_n440# full_adder_11/a_2010_n530# gnd gnd sky130_fd_pr__nfet_01v8 ad=0.1575 pd=1.6 as=0 ps=0 w=0.45 l=0.15
X48 full_adder_11/a_1260_40# a7 vdd vdd sky130_fd_pr__pfet_01v8 ad=0 pd=0 as=0 ps=0 w=1.8 l=0.15
X49 full_adder_11/a_510_n530# full_adder_11/cin full_adder_11/a_10_40# vdd sky130_fd_pr__pfet_01v8 ad=0 pd=0 as=0 ps=0 w=1.8 l=0.15
X50 full_adder_11/a_1260_n530# full_adder_11/cin gnd gnd sky130_fd_pr__nfet_01v8 ad=1.26 pd=10 as=0 ps=0 w=0.9 l=0.15
X51 full_adder_11/a_2010_n530# full_adder_11/a_510_n530# full_adder_11/a_1260_n530# gnd sky130_fd_pr__nfet_01v8 ad=0 pd=0 as=0 ps=0 w=0.9 l=0.15
X52 full_adder_11/a_2510_40# b7 full_adder_11/a_2260_40# vdd sky130_fd_pr__pfet_01v8 ad=1.89 pd=12.2 as=0 ps=0 w=2.7 l=0.15
X53 full_adder_11/a_2010_n530# full_adder_11/a_510_n530# full_adder_11/a_1260_40# vdd sky130_fd_pr__pfet_01v8 ad=1.575 pd=10.4 as=0 ps=0 w=1.8 l=0.15
X54 full_adder_11/a_2260_n620# a7 gnd gnd sky130_fd_pr__nfet_01v8 ad=0.945 pd=6.8 as=0 ps=0 w=1.35 l=0.15
X55 full_adder_11/a_2510_n620# b7 full_adder_11/a_2260_n620# gnd sky130_fd_pr__nfet_01v8 ad=0 pd=0 as=0 ps=0 w=1.35 l=0.15
X56 mux_2to1_4/in2 full_adder_11/a_510_n530# gnd gnd sky130_fd_pr__nfet_01v8 ad=0.1575 pd=1.6 as=0 ps=0 w=0.45 l=0.15
X57 full_adder_11/a_10_n530# a7 gnd gnd sky130_fd_pr__nfet_01v8 ad=0 pd=0 as=0 ps=0 w=0.9 l=0.15
X58 full_adder_11/a_10_40# a7 vdd vdd sky130_fd_pr__pfet_01v8 ad=0 pd=0 as=0 ps=0 w=1.8 l=0.15
X59 full_adder_11/a_1260_n530# a7 gnd gnd sky130_fd_pr__nfet_01v8 ad=0 pd=0 as=0 ps=0 w=0.9 l=0.15
X60 full_adder_11/a_1260_n530# b7 gnd gnd sky130_fd_pr__nfet_01v8 ad=0 pd=0 as=0 ps=0 w=0.9 l=0.15
X61 full_adder_11/a_760_40# b7 vdd vdd sky130_fd_pr__pfet_01v8 ad=0 pd=0 as=0 ps=0 w=1.8 l=0.15
X62 full_adder_11/a_1260_40# b7 vdd vdd sky130_fd_pr__pfet_01v8 ad=0 pd=0 as=0 ps=0 w=1.8 l=0.15
X63 full_adder_11/a_2010_n530# full_adder_11/cin full_adder_11/a_2510_40# vdd sky130_fd_pr__pfet_01v8 ad=0 pd=0 as=0 ps=0 w=2.7 l=0.15
X64 mux_2to1_0/a_2720_340# mux_2to1_0/a_2510_640# mux_2to1_0/a_2820_860# vdd sky130_fd_pr__pfet_01v8 ad=0.63 pd=4.3 as=0.63 ps=4.3 w=1.8 l=0.15
X65 mux_2to1_0/a_2820_340# mux_2to1_4/sel mux_2to1_0/a_2720_340# gnd sky130_fd_pr__nfet_01v8 ad=0.315 pd=2.5 as=0.315 ps=2.5 w=0.9 l=0.15
X66 s4 mux_2to1_0/a_2720_340# vdd vdd sky130_fd_pr__pfet_01v8 ad=0.315 pd=2.5 as=0.315 ps=2.5 w=0.9 l=0.15
X67 gnd mux_2to1_0/in2 mux_2to1_0/a_2820_340# gnd sky130_fd_pr__nfet_01v8 ad=0.315 pd=2.5 as=0.315 ps=2.5 w=0.9 l=0.15
X68 mux_2to1_0/a_2510_640# mux_2to1_4/sel gnd gnd sky130_fd_pr__nfet_01v8 ad=0.1575 pd=1.6 as=0.1575 ps=1.6 w=0.45 l=0.15
X69 mux_2to1_0/a_3320_340# mux_2to1_0/a_2510_640# mux_2to1_0/a_2720_340# gnd sky130_fd_pr__nfet_01v8 ad=0.315 pd=2.5 as=0.315 ps=2.5 w=0.9 l=0.15
X70 mux_2to1_0/a_2720_340# vdd mux_2to1_0/a_2820_860# vdd sky130_fd_pr__pfet_01v8 ad=0.63 pd=4.3 as=0.63 ps=4.3 w=1.8 l=0.15
X71 s4 mux_2to1_0/a_2720_340# gnd gnd sky130_fd_pr__nfet_01v8 ad=0.1575 pd=1.6 as=0.1575 ps=1.6 w=0.45 l=0.15
X72 gnd vdd mux_2to1_0/a_3320_340# gnd sky130_fd_pr__nfet_01v8 ad=0.315 pd=2.5 as=0.315 ps=2.5 w=0.9 l=0.15
X73 mux_2to1_0/a_2820_860# mux_2to1_4/sel vdd vdd sky130_fd_pr__pfet_01v8 ad=0.63 pd=4.3 as=0.63 ps=4.3 w=1.8 l=0.15
X74 mux_2to1_0/a_2510_640# mux_2to1_4/sel vdd vdd sky130_fd_pr__pfet_01v8 ad=0.315 pd=2.5 as=0.315 ps=2.5 w=0.9 l=0.15
X75 mux_2to1_0/a_2820_860# mux_2to1_0/in2 vdd vdd sky130_fd_pr__pfet_01v8 ad=0.63 pd=4.3 as=0.63 ps=4.3 w=1.8 l=0.15
X76 mux_2to1_1/a_2720_340# mux_2to1_1/a_2510_640# mux_2to1_1/a_2820_860# vdd sky130_fd_pr__pfet_01v8 ad=1.26 pd=8.6 as=2.52 ps=17.2 w=1.8 l=0.15
X77 mux_2to1_1/a_2820_340# mux_2to1_4/sel mux_2to1_1/a_2720_340# gnd sky130_fd_pr__nfet_01v8 ad=0.63 pd=5 as=0.63 ps=5 w=0.9 l=0.15
X78 out mux_2to1_1/a_2720_340# vdd vdd sky130_fd_pr__pfet_01v8 ad=1.26 pd=10 as=0 ps=0 w=0.9 l=0.15
X79 gnd mux_2to1_1/in2 mux_2to1_1/a_2820_340# gnd sky130_fd_pr__nfet_01v8 ad=0 pd=0 as=0 ps=0 w=0.9 l=0.15
X80 mux_2to1_1/a_2510_640# mux_2to1_4/sel gnd gnd sky130_fd_pr__nfet_01v8 ad=0.1575 pd=1.6 as=0 ps=0 w=0.45 l=0.15
X81 mux_2to1_1/a_3320_340# mux_2to1_1/a_2510_640# mux_2to1_1/a_2720_340# gnd sky130_fd_pr__nfet_01v8 ad=0.63 pd=5 as=0 ps=0 w=0.9 l=0.15
X82 mux_2to1_1/a_2720_340# vdd mux_2to1_1/a_2820_860# vdd sky130_fd_pr__pfet_01v8 ad=0 pd=0 as=0 ps=0 w=1.8 l=0.15
X83 out mux_2to1_1/a_2720_340# gnd gnd sky130_fd_pr__nfet_01v8 ad=0.63 pd=6.4 as=0 ps=0 w=0.45 l=0.15
X84 gnd vdd mux_2to1_1/a_3320_340# gnd sky130_fd_pr__nfet_01v8 ad=0 pd=0 as=0 ps=0 w=0.9 l=0.15
X85 mux_2to1_1/a_2820_860# mux_2to1_4/sel vdd vdd sky130_fd_pr__pfet_01v8 ad=0 pd=0 as=0 ps=0 w=1.8 l=0.15
X86 mux_2to1_1/a_2510_640# mux_2to1_4/sel vdd vdd sky130_fd_pr__pfet_01v8 ad=0.315 pd=2.5 as=0 ps=0 w=0.9 l=0.15
X87 mux_2to1_1/a_2820_860# mux_2to1_1/in2 vdd vdd sky130_fd_pr__pfet_01v8 ad=0 pd=0 as=0 ps=0 w=1.8 l=0.15
X88 mux_2to1_2/a_2720_340# mux_2to1_2/a_2510_640# mux_2to1_2/a_2820_860# vdd sky130_fd_pr__pfet_01v8 ad=1.26 pd=8.6 as=2.52 ps=17.2 w=1.8 l=0.15
X89 mux_2to1_2/a_2820_340# mux_2to1_4/sel mux_2to1_2/a_2720_340# gnd sky130_fd_pr__nfet_01v8 ad=0.63 pd=5 as=0.63 ps=5 w=0.9 l=0.15
X90 out mux_2to1_2/a_2720_340# vdd vdd sky130_fd_pr__pfet_01v8 ad=0 pd=0 as=0 ps=0 w=0.9 l=0.15
X91 gnd mux_2to1_2/in2 mux_2to1_2/a_2820_340# gnd sky130_fd_pr__nfet_01v8 ad=0 pd=0 as=0 ps=0 w=0.9 l=0.15
X92 mux_2to1_2/a_2510_640# mux_2to1_4/sel gnd gnd sky130_fd_pr__nfet_01v8 ad=0.1575 pd=1.6 as=0 ps=0 w=0.45 l=0.15
X93 mux_2to1_2/a_3320_340# mux_2to1_2/a_2510_640# mux_2to1_2/a_2720_340# gnd sky130_fd_pr__nfet_01v8 ad=0.63 pd=5 as=0 ps=0 w=0.9 l=0.15
X94 mux_2to1_2/a_2720_340# vdd mux_2to1_2/a_2820_860# vdd sky130_fd_pr__pfet_01v8 ad=0 pd=0 as=0 ps=0 w=1.8 l=0.15
X95 out mux_2to1_2/a_2720_340# gnd gnd sky130_fd_pr__nfet_01v8 ad=0 pd=0 as=0 ps=0 w=0.45 l=0.15
X96 gnd vdd mux_2to1_2/a_3320_340# gnd sky130_fd_pr__nfet_01v8 ad=0 pd=0 as=0 ps=0 w=0.9 l=0.15
X97 mux_2to1_2/a_2820_860# mux_2to1_4/sel vdd vdd sky130_fd_pr__pfet_01v8 ad=0 pd=0 as=0 ps=0 w=1.8 l=0.15
X98 mux_2to1_2/a_2510_640# mux_2to1_4/sel vdd vdd sky130_fd_pr__pfet_01v8 ad=0.315 pd=2.5 as=0 ps=0 w=0.9 l=0.15
X99 mux_2to1_2/a_2820_860# mux_2to1_2/in2 vdd vdd sky130_fd_pr__pfet_01v8 ad=0 pd=0 as=0 ps=0 w=1.8 l=0.15
X100 full_adder_0/a_3550_n440# full_adder_0/a_3010_n440# vdd vdd sky130_fd_pr__pfet_01v8 ad=0.315 pd=2.5 as=0 ps=0 w=0.9 l=0.15
X101 full_adder_0/a_760_n530# full_adder_0/b gnd gnd sky130_fd_pr__nfet_01v8 ad=0.63 pd=5 as=0 ps=0 w=0.9 l=0.15
X102 full_adder_0/a_510_n530# full_adder_0/a full_adder_0/a_760_n530# gnd sky130_fd_pr__nfet_01v8 ad=0.63 pd=5 as=0 ps=0 w=0.9 l=0.15
X103 full_adder_0/a_10_40# full_adder_0/b vdd vdd sky130_fd_pr__pfet_01v8 ad=1.89 pd=12.9 as=0 ps=0 w=1.8 l=0.15
X104 full_adder_0/a_3550_n440# full_adder_0/a_3010_n440# gnd gnd sky130_fd_pr__nfet_01v8 ad=0.1575 pd=1.6 as=0 ps=0 w=0.45 l=0.15
X105 s1 full_adder_0/a_3550_n440# gnd gnd sky130_fd_pr__nfet_01v8 ad=0.1575 pd=1.6 as=0 ps=0 w=0.45 l=0.15
X106 full_adder_0/a_1260_40# full_adder_0/cin vdd vdd sky130_fd_pr__pfet_01v8 ad=2.52 pd=17.2 as=0 ps=0 w=1.8 l=0.15
X107 full_adder_0/a_2260_40# full_adder_0/a vdd vdd sky130_fd_pr__pfet_01v8 ad=1.89 pd=12.2 as=0 ps=0 w=2.7 l=0.15
X108 full_adder_0/a_10_n530# full_adder_0/b gnd gnd sky130_fd_pr__nfet_01v8 ad=0.945 pd=7.5 as=0 ps=0 w=0.9 l=0.15
X109 full_adder_0/a_510_n530# full_adder_0/cin full_adder_0/a_10_n530# gnd sky130_fd_pr__nfet_01v8 ad=0 pd=0 as=0 ps=0 w=0.9 l=0.15
X110 full_adder_0/a_510_n530# full_adder_0/a full_adder_0/a_760_40# vdd sky130_fd_pr__pfet_01v8 ad=1.26 pd=8.6 as=1.26 ps=8.6 w=1.8 l=0.15
X111 full_adder_0/a_3010_n440# full_adder_0/a_2010_n530# vdd vdd sky130_fd_pr__pfet_01v8 ad=0.315 pd=2.5 as=0 ps=0 w=0.9 l=0.15
X112 s1 full_adder_0/a_3550_n440# vdd vdd sky130_fd_pr__pfet_01v8 ad=0.315 pd=2.5 as=0 ps=0 w=0.9 l=0.15
X113 full_adder_2/cin full_adder_0/a_510_n530# vdd vdd sky130_fd_pr__pfet_01v8 ad=0.315 pd=2.5 as=0 ps=0 w=0.9 l=0.15
X114 full_adder_0/a_2010_n530# full_adder_0/cin full_adder_0/a_2510_n620# gnd sky130_fd_pr__nfet_01v8 ad=0.7875 pd=5.9 as=0.945 ps=6.8 w=1.35 l=0.15
X115 full_adder_0/a_3010_n440# full_adder_0/a_2010_n530# gnd gnd sky130_fd_pr__nfet_01v8 ad=0.1575 pd=1.6 as=0 ps=0 w=0.45 l=0.15
X116 full_adder_0/a_1260_40# full_adder_0/a vdd vdd sky130_fd_pr__pfet_01v8 ad=0 pd=0 as=0 ps=0 w=1.8 l=0.15
X117 full_adder_0/a_510_n530# full_adder_0/cin full_adder_0/a_10_40# vdd sky130_fd_pr__pfet_01v8 ad=0 pd=0 as=0 ps=0 w=1.8 l=0.15
X118 full_adder_0/a_1260_n530# full_adder_0/cin gnd gnd sky130_fd_pr__nfet_01v8 ad=1.26 pd=10 as=0 ps=0 w=0.9 l=0.15
X119 full_adder_0/a_2010_n530# full_adder_0/a_510_n530# full_adder_0/a_1260_n530# gnd sky130_fd_pr__nfet_01v8 ad=0 pd=0 as=0 ps=0 w=0.9 l=0.15
X120 full_adder_0/a_2510_40# full_adder_0/b full_adder_0/a_2260_40# vdd sky130_fd_pr__pfet_01v8 ad=1.89 pd=12.2 as=0 ps=0 w=2.7 l=0.15
X121 full_adder_0/a_2010_n530# full_adder_0/a_510_n530# full_adder_0/a_1260_40# vdd sky130_fd_pr__pfet_01v8 ad=1.575 pd=10.4 as=0 ps=0 w=1.8 l=0.15
X122 full_adder_0/a_2260_n620# full_adder_0/a gnd gnd sky130_fd_pr__nfet_01v8 ad=0.945 pd=6.8 as=0 ps=0 w=1.35 l=0.15
X123 full_adder_0/a_2510_n620# full_adder_0/b full_adder_0/a_2260_n620# gnd sky130_fd_pr__nfet_01v8 ad=0 pd=0 as=0 ps=0 w=1.35 l=0.15
X124 full_adder_2/cin full_adder_0/a_510_n530# gnd gnd sky130_fd_pr__nfet_01v8 ad=0.1575 pd=1.6 as=0 ps=0 w=0.45 l=0.15
X125 full_adder_0/a_10_n530# full_adder_0/a gnd gnd sky130_fd_pr__nfet_01v8 ad=0 pd=0 as=0 ps=0 w=0.9 l=0.15
X126 full_adder_0/a_10_40# full_adder_0/a vdd vdd sky130_fd_pr__pfet_01v8 ad=0 pd=0 as=0 ps=0 w=1.8 l=0.15
X127 full_adder_0/a_1260_n530# full_adder_0/a gnd gnd sky130_fd_pr__nfet_01v8 ad=0 pd=0 as=0 ps=0 w=0.9 l=0.15
X128 full_adder_0/a_1260_n530# full_adder_0/b gnd gnd sky130_fd_pr__nfet_01v8 ad=0 pd=0 as=0 ps=0 w=0.9 l=0.15
X129 full_adder_0/a_760_40# full_adder_0/b vdd vdd sky130_fd_pr__pfet_01v8 ad=0 pd=0 as=0 ps=0 w=1.8 l=0.15
X130 full_adder_0/a_1260_40# full_adder_0/b vdd vdd sky130_fd_pr__pfet_01v8 ad=0 pd=0 as=0 ps=0 w=1.8 l=0.15
X131 full_adder_0/a_2010_n530# full_adder_0/cin full_adder_0/a_2510_40# vdd sky130_fd_pr__pfet_01v8 ad=0 pd=0 as=0 ps=0 w=2.7 l=0.15
X132 mux_2to1_3/a_2720_340# mux_2to1_3/a_2510_640# mux_2to1_3/a_2820_860# vdd sky130_fd_pr__pfet_01v8 ad=1.26 pd=8.6 as=2.52 ps=17.2 w=1.8 l=0.15
X133 mux_2to1_3/a_2820_340# mux_2to1_4/sel mux_2to1_3/a_2720_340# gnd sky130_fd_pr__nfet_01v8 ad=0.63 pd=5 as=0.63 ps=5 w=0.9 l=0.15
X134 out mux_2to1_3/a_2720_340# vdd vdd sky130_fd_pr__pfet_01v8 ad=0 pd=0 as=0 ps=0 w=0.9 l=0.15
X135 gnd mux_2to1_3/in2 mux_2to1_3/a_2820_340# gnd sky130_fd_pr__nfet_01v8 ad=0 pd=0 as=0 ps=0 w=0.9 l=0.15
X136 mux_2to1_3/a_2510_640# mux_2to1_4/sel gnd gnd sky130_fd_pr__nfet_01v8 ad=0.1575 pd=1.6 as=0 ps=0 w=0.45 l=0.15
X137 mux_2to1_3/a_3320_340# mux_2to1_3/a_2510_640# mux_2to1_3/a_2720_340# gnd sky130_fd_pr__nfet_01v8 ad=0.63 pd=5 as=0 ps=0 w=0.9 l=0.15
X138 mux_2to1_3/a_2720_340# mux_2to1_3/in1 mux_2to1_3/a_2820_860# vdd sky130_fd_pr__pfet_01v8 ad=0 pd=0 as=0 ps=0 w=1.8 l=0.15
X139 out mux_2to1_3/a_2720_340# gnd gnd sky130_fd_pr__nfet_01v8 ad=0 pd=0 as=0 ps=0 w=0.45 l=0.15
X140 gnd mux_2to1_3/in1 mux_2to1_3/a_3320_340# gnd sky130_fd_pr__nfet_01v8 ad=0 pd=0 as=0 ps=0 w=0.9 l=0.15
X141 mux_2to1_3/a_2820_860# mux_2to1_4/sel vdd vdd sky130_fd_pr__pfet_01v8 ad=0 pd=0 as=0 ps=0 w=1.8 l=0.15
X142 mux_2to1_3/a_2510_640# mux_2to1_4/sel vdd vdd sky130_fd_pr__pfet_01v8 ad=0.315 pd=2.5 as=0 ps=0 w=0.9 l=0.15
X143 mux_2to1_3/a_2820_860# mux_2to1_3/in2 vdd vdd sky130_fd_pr__pfet_01v8 ad=0 pd=0 as=0 ps=0 w=1.8 l=0.15
X144 mux_2to1_4/a_2720_340# mux_2to1_4/a_2510_640# mux_2to1_4/a_2820_860# vdd sky130_fd_pr__pfet_01v8 ad=1.26 pd=8.6 as=2.52 ps=17.2 w=1.8 l=0.15
X145 mux_2to1_4/a_2820_340# mux_2to1_4/sel mux_2to1_4/a_2720_340# gnd sky130_fd_pr__nfet_01v8 ad=0.63 pd=5 as=0.63 ps=5 w=0.9 l=0.15
X146 out mux_2to1_4/a_2720_340# vdd vdd sky130_fd_pr__pfet_01v8 ad=0 pd=0 as=0 ps=0 w=0.9 l=0.15
X147 gnd mux_2to1_4/in2 mux_2to1_4/a_2820_340# gnd sky130_fd_pr__nfet_01v8 ad=0 pd=0 as=0 ps=0 w=0.9 l=0.15
X148 mux_2to1_4/a_2510_640# mux_2to1_4/sel gnd gnd sky130_fd_pr__nfet_01v8 ad=0.1575 pd=1.6 as=0 ps=0 w=0.45 l=0.15
X149 mux_2to1_4/a_3320_340# mux_2to1_4/a_2510_640# mux_2to1_4/a_2720_340# gnd sky130_fd_pr__nfet_01v8 ad=0.63 pd=5 as=0 ps=0 w=0.9 l=0.15
X150 mux_2to1_4/a_2720_340# mux_2to1_4/in1 mux_2to1_4/a_2820_860# vdd sky130_fd_pr__pfet_01v8 ad=0 pd=0 as=0 ps=0 w=1.8 l=0.15
X151 out mux_2to1_4/a_2720_340# gnd gnd sky130_fd_pr__nfet_01v8 ad=0 pd=0 as=0 ps=0 w=0.45 l=0.15
X152 gnd mux_2to1_4/in1 mux_2to1_4/a_3320_340# gnd sky130_fd_pr__nfet_01v8 ad=0 pd=0 as=0 ps=0 w=0.9 l=0.15
X153 mux_2to1_4/a_2820_860# mux_2to1_4/sel vdd vdd sky130_fd_pr__pfet_01v8 ad=0 pd=0 as=0 ps=0 w=1.8 l=0.15
X154 mux_2to1_4/a_2510_640# mux_2to1_4/sel vdd vdd sky130_fd_pr__pfet_01v8 ad=0.315 pd=2.5 as=0 ps=0 w=0.9 l=0.15
X155 mux_2to1_4/a_2820_860# mux_2to1_4/in2 vdd vdd sky130_fd_pr__pfet_01v8 ad=0 pd=0 as=0 ps=0 w=1.8 l=0.15
X156 full_adder_1/a_3550_n440# full_adder_1/a_3010_n440# vdd vdd sky130_fd_pr__pfet_01v8 ad=0.315 pd=2.5 as=0 ps=0 w=0.9 l=0.15
X157 full_adder_1/a_760_n530# b0 gnd gnd sky130_fd_pr__nfet_01v8 ad=0.63 pd=5 as=0 ps=0 w=0.9 l=0.15
X158 full_adder_1/a_510_n530# a0 full_adder_1/a_760_n530# gnd sky130_fd_pr__nfet_01v8 ad=0.63 pd=5 as=0 ps=0 w=0.9 l=0.15
X159 full_adder_1/a_10_40# b0 vdd vdd sky130_fd_pr__pfet_01v8 ad=1.89 pd=12.9 as=0 ps=0 w=1.8 l=0.15
X160 full_adder_1/a_3550_n440# full_adder_1/a_3010_n440# gnd gnd sky130_fd_pr__nfet_01v8 ad=0.1575 pd=1.6 as=0 ps=0 w=0.45 l=0.15
X161 s0 full_adder_1/a_3550_n440# gnd gnd sky130_fd_pr__nfet_01v8 ad=0.1575 pd=1.6 as=0 ps=0 w=0.45 l=0.15
X162 full_adder_1/a_1260_40# cin0 vdd vdd sky130_fd_pr__pfet_01v8 ad=2.52 pd=17.2 as=0 ps=0 w=1.8 l=0.15
X163 full_adder_1/a_2260_40# a0 vdd vdd sky130_fd_pr__pfet_01v8 ad=1.89 pd=12.2 as=0 ps=0 w=2.7 l=0.15
X164 full_adder_1/a_10_n530# b0 gnd gnd sky130_fd_pr__nfet_01v8 ad=0.945 pd=7.5 as=0 ps=0 w=0.9 l=0.15
X165 full_adder_1/a_510_n530# cin0 full_adder_1/a_10_n530# gnd sky130_fd_pr__nfet_01v8 ad=0 pd=0 as=0 ps=0 w=0.9 l=0.15
X166 full_adder_1/a_510_n530# a0 full_adder_1/a_760_40# vdd sky130_fd_pr__pfet_01v8 ad=1.26 pd=8.6 as=1.26 ps=8.6 w=1.8 l=0.15
X167 full_adder_1/a_3010_n440# full_adder_1/a_2010_n530# vdd vdd sky130_fd_pr__pfet_01v8 ad=0.315 pd=2.5 as=0 ps=0 w=0.9 l=0.15
X168 s0 full_adder_1/a_3550_n440# vdd vdd sky130_fd_pr__pfet_01v8 ad=0.315 pd=2.5 as=0 ps=0 w=0.9 l=0.15
X169 full_adder_0/cin full_adder_1/a_510_n530# vdd vdd sky130_fd_pr__pfet_01v8 ad=0.315 pd=2.5 as=0 ps=0 w=0.9 l=0.15
X170 full_adder_1/a_2010_n530# cin0 full_adder_1/a_2510_n620# gnd sky130_fd_pr__nfet_01v8 ad=0.7875 pd=5.9 as=0.945 ps=6.8 w=1.35 l=0.15
X171 full_adder_1/a_3010_n440# full_adder_1/a_2010_n530# gnd gnd sky130_fd_pr__nfet_01v8 ad=0.1575 pd=1.6 as=0 ps=0 w=0.45 l=0.15
X172 full_adder_1/a_1260_40# a0 vdd vdd sky130_fd_pr__pfet_01v8 ad=0 pd=0 as=0 ps=0 w=1.8 l=0.15
X173 full_adder_1/a_510_n530# cin0 full_adder_1/a_10_40# vdd sky130_fd_pr__pfet_01v8 ad=0 pd=0 as=0 ps=0 w=1.8 l=0.15
X174 full_adder_1/a_1260_n530# cin0 gnd gnd sky130_fd_pr__nfet_01v8 ad=1.26 pd=10 as=0 ps=0 w=0.9 l=0.15
X175 full_adder_1/a_2010_n530# full_adder_1/a_510_n530# full_adder_1/a_1260_n530# gnd sky130_fd_pr__nfet_01v8 ad=0 pd=0 as=0 ps=0 w=0.9 l=0.15
X176 full_adder_1/a_2510_40# b0 full_adder_1/a_2260_40# vdd sky130_fd_pr__pfet_01v8 ad=1.89 pd=12.2 as=0 ps=0 w=2.7 l=0.15
X177 full_adder_1/a_2010_n530# full_adder_1/a_510_n530# full_adder_1/a_1260_40# vdd sky130_fd_pr__pfet_01v8 ad=1.575 pd=10.4 as=0 ps=0 w=1.8 l=0.15
X178 full_adder_1/a_2260_n620# a0 gnd gnd sky130_fd_pr__nfet_01v8 ad=0.945 pd=6.8 as=0 ps=0 w=1.35 l=0.15
X179 full_adder_1/a_2510_n620# b0 full_adder_1/a_2260_n620# gnd sky130_fd_pr__nfet_01v8 ad=0 pd=0 as=0 ps=0 w=1.35 l=0.15
X180 full_adder_0/cin full_adder_1/a_510_n530# gnd gnd sky130_fd_pr__nfet_01v8 ad=0.1575 pd=1.6 as=0 ps=0 w=0.45 l=0.15
X181 full_adder_1/a_10_n530# a0 gnd gnd sky130_fd_pr__nfet_01v8 ad=0 pd=0 as=0 ps=0 w=0.9 l=0.15
X182 full_adder_1/a_10_40# a0 vdd vdd sky130_fd_pr__pfet_01v8 ad=0 pd=0 as=0 ps=0 w=1.8 l=0.15
X183 full_adder_1/a_1260_n530# a0 gnd gnd sky130_fd_pr__nfet_01v8 ad=0 pd=0 as=0 ps=0 w=0.9 l=0.15
X184 full_adder_1/a_1260_n530# b0 gnd gnd sky130_fd_pr__nfet_01v8 ad=0 pd=0 as=0 ps=0 w=0.9 l=0.15
X185 full_adder_1/a_760_40# b0 vdd vdd sky130_fd_pr__pfet_01v8 ad=0 pd=0 as=0 ps=0 w=1.8 l=0.15
X186 full_adder_1/a_1260_40# b0 vdd vdd sky130_fd_pr__pfet_01v8 ad=0 pd=0 as=0 ps=0 w=1.8 l=0.15
X187 full_adder_1/a_2010_n530# cin0 full_adder_1/a_2510_40# vdd sky130_fd_pr__pfet_01v8 ad=0 pd=0 as=0 ps=0 w=2.7 l=0.15
X188 full_adder_3/a_3550_n440# full_adder_3/a_3010_n440# vdd vdd sky130_fd_pr__pfet_01v8 ad=0.315 pd=2.5 as=0 ps=0 w=0.9 l=0.15
X189 full_adder_3/a_760_n530# b7 gnd gnd sky130_fd_pr__nfet_01v8 ad=0.63 pd=5 as=0 ps=0 w=0.9 l=0.15
X190 full_adder_3/a_510_n530# a7 full_adder_3/a_760_n530# gnd sky130_fd_pr__nfet_01v8 ad=0.63 pd=5 as=0 ps=0 w=0.9 l=0.15
X191 full_adder_3/a_10_40# b7 vdd vdd sky130_fd_pr__pfet_01v8 ad=1.89 pd=12.9 as=0 ps=0 w=1.8 l=0.15
X192 full_adder_3/a_3550_n440# full_adder_3/a_3010_n440# gnd gnd sky130_fd_pr__nfet_01v8 ad=0.1575 pd=1.6 as=0 ps=0 w=0.45 l=0.15
X193 mux_2to1_3/in1 full_adder_3/a_3550_n440# gnd gnd sky130_fd_pr__nfet_01v8 ad=0.1575 pd=1.6 as=0 ps=0 w=0.45 l=0.15
X194 full_adder_3/a_1260_40# full_adder_3/cin vdd vdd sky130_fd_pr__pfet_01v8 ad=2.52 pd=17.2 as=0 ps=0 w=1.8 l=0.15
X195 full_adder_3/a_2260_40# a7 vdd vdd sky130_fd_pr__pfet_01v8 ad=1.89 pd=12.2 as=0 ps=0 w=2.7 l=0.15
X196 full_adder_3/a_10_n530# b7 gnd gnd sky130_fd_pr__nfet_01v8 ad=0.945 pd=7.5 as=0 ps=0 w=0.9 l=0.15
X197 full_adder_3/a_510_n530# full_adder_3/cin full_adder_3/a_10_n530# gnd sky130_fd_pr__nfet_01v8 ad=0 pd=0 as=0 ps=0 w=0.9 l=0.15
X198 full_adder_3/a_510_n530# a7 full_adder_3/a_760_40# vdd sky130_fd_pr__pfet_01v8 ad=1.26 pd=8.6 as=1.26 ps=8.6 w=1.8 l=0.15
X199 full_adder_3/a_3010_n440# full_adder_3/a_2010_n530# vdd vdd sky130_fd_pr__pfet_01v8 ad=0.315 pd=2.5 as=0 ps=0 w=0.9 l=0.15
X200 mux_2to1_3/in1 full_adder_3/a_3550_n440# vdd vdd sky130_fd_pr__pfet_01v8 ad=0.315 pd=2.5 as=0 ps=0 w=0.9 l=0.15
X201 mux_2to1_4/in1 full_adder_3/a_510_n530# vdd vdd sky130_fd_pr__pfet_01v8 ad=0.315 pd=2.5 as=0 ps=0 w=0.9 l=0.15
X202 full_adder_3/a_2010_n530# full_adder_3/cin full_adder_3/a_2510_n620# gnd sky130_fd_pr__nfet_01v8 ad=0.7875 pd=5.9 as=0.945 ps=6.8 w=1.35 l=0.15
X203 full_adder_3/a_3010_n440# full_adder_3/a_2010_n530# gnd gnd sky130_fd_pr__nfet_01v8 ad=0.1575 pd=1.6 as=0 ps=0 w=0.45 l=0.15
X204 full_adder_3/a_1260_40# a7 vdd vdd sky130_fd_pr__pfet_01v8 ad=0 pd=0 as=0 ps=0 w=1.8 l=0.15
X205 full_adder_3/a_510_n530# full_adder_3/cin full_adder_3/a_10_40# vdd sky130_fd_pr__pfet_01v8 ad=0 pd=0 as=0 ps=0 w=1.8 l=0.15
X206 full_adder_3/a_1260_n530# full_adder_3/cin gnd gnd sky130_fd_pr__nfet_01v8 ad=1.26 pd=10 as=0 ps=0 w=0.9 l=0.15
X207 full_adder_3/a_2010_n530# full_adder_3/a_510_n530# full_adder_3/a_1260_n530# gnd sky130_fd_pr__nfet_01v8 ad=0 pd=0 as=0 ps=0 w=0.9 l=0.15
X208 full_adder_3/a_2510_40# b7 full_adder_3/a_2260_40# vdd sky130_fd_pr__pfet_01v8 ad=1.89 pd=12.2 as=0 ps=0 w=2.7 l=0.15
X209 full_adder_3/a_2010_n530# full_adder_3/a_510_n530# full_adder_3/a_1260_40# vdd sky130_fd_pr__pfet_01v8 ad=1.575 pd=10.4 as=0 ps=0 w=1.8 l=0.15
X210 full_adder_3/a_2260_n620# a7 gnd gnd sky130_fd_pr__nfet_01v8 ad=0.945 pd=6.8 as=0 ps=0 w=1.35 l=0.15
X211 full_adder_3/a_2510_n620# b7 full_adder_3/a_2260_n620# gnd sky130_fd_pr__nfet_01v8 ad=0 pd=0 as=0 ps=0 w=1.35 l=0.15
X212 mux_2to1_4/in1 full_adder_3/a_510_n530# gnd gnd sky130_fd_pr__nfet_01v8 ad=0.1575 pd=1.6 as=0 ps=0 w=0.45 l=0.15
X213 full_adder_3/a_10_n530# a7 gnd gnd sky130_fd_pr__nfet_01v8 ad=0 pd=0 as=0 ps=0 w=0.9 l=0.15
X214 full_adder_3/a_10_40# a7 vdd vdd sky130_fd_pr__pfet_01v8 ad=0 pd=0 as=0 ps=0 w=1.8 l=0.15
X215 full_adder_3/a_1260_n530# a7 gnd gnd sky130_fd_pr__nfet_01v8 ad=0 pd=0 as=0 ps=0 w=0.9 l=0.15
X216 full_adder_3/a_1260_n530# b7 gnd gnd sky130_fd_pr__nfet_01v8 ad=0 pd=0 as=0 ps=0 w=0.9 l=0.15
X217 full_adder_3/a_760_40# b7 vdd vdd sky130_fd_pr__pfet_01v8 ad=0 pd=0 as=0 ps=0 w=1.8 l=0.15
X218 full_adder_3/a_1260_40# b7 vdd vdd sky130_fd_pr__pfet_01v8 ad=0 pd=0 as=0 ps=0 w=1.8 l=0.15
X219 full_adder_3/a_2010_n530# full_adder_3/cin full_adder_3/a_2510_40# vdd sky130_fd_pr__pfet_01v8 ad=0 pd=0 as=0 ps=0 w=2.7 l=0.15
X220 full_adder_2/a_3550_n440# full_adder_2/a_3010_n440# vdd vdd sky130_fd_pr__pfet_01v8 ad=0.315 pd=2.5 as=0 ps=0 w=0.9 l=0.15
X221 full_adder_2/a_760_n530# full_adder_2/b gnd gnd sky130_fd_pr__nfet_01v8 ad=0.63 pd=5 as=0 ps=0 w=0.9 l=0.15
X222 full_adder_2/a_510_n530# full_adder_2/a full_adder_2/a_760_n530# gnd sky130_fd_pr__nfet_01v8 ad=0.63 pd=5 as=0 ps=0 w=0.9 l=0.15
X223 full_adder_2/a_10_40# full_adder_2/b vdd vdd sky130_fd_pr__pfet_01v8 ad=1.89 pd=12.9 as=0 ps=0 w=1.8 l=0.15
X224 full_adder_2/a_3550_n440# full_adder_2/a_3010_n440# gnd gnd sky130_fd_pr__nfet_01v8 ad=0.1575 pd=1.6 as=0 ps=0 w=0.45 l=0.15
X225 s2 full_adder_2/a_3550_n440# gnd gnd sky130_fd_pr__nfet_01v8 ad=0.1575 pd=1.6 as=0 ps=0 w=0.45 l=0.15
X226 full_adder_2/a_1260_40# full_adder_2/cin vdd vdd sky130_fd_pr__pfet_01v8 ad=2.52 pd=17.2 as=0 ps=0 w=1.8 l=0.15
X227 full_adder_2/a_2260_40# full_adder_2/a vdd vdd sky130_fd_pr__pfet_01v8 ad=1.89 pd=12.2 as=0 ps=0 w=2.7 l=0.15
X228 full_adder_2/a_10_n530# full_adder_2/b gnd gnd sky130_fd_pr__nfet_01v8 ad=0.945 pd=7.5 as=0 ps=0 w=0.9 l=0.15
X229 full_adder_2/a_510_n530# full_adder_2/cin full_adder_2/a_10_n530# gnd sky130_fd_pr__nfet_01v8 ad=0 pd=0 as=0 ps=0 w=0.9 l=0.15
X230 full_adder_2/a_510_n530# full_adder_2/a full_adder_2/a_760_40# vdd sky130_fd_pr__pfet_01v8 ad=1.26 pd=8.6 as=1.26 ps=8.6 w=1.8 l=0.15
X231 full_adder_2/a_3010_n440# full_adder_2/a_2010_n530# vdd vdd sky130_fd_pr__pfet_01v8 ad=0.315 pd=2.5 as=0 ps=0 w=0.9 l=0.15
X232 s2 full_adder_2/a_3550_n440# vdd vdd sky130_fd_pr__pfet_01v8 ad=0.315 pd=2.5 as=0 ps=0 w=0.9 l=0.15
X233 full_adder_4/cin full_adder_2/a_510_n530# vdd vdd sky130_fd_pr__pfet_01v8 ad=0.315 pd=2.5 as=0 ps=0 w=0.9 l=0.15
X234 full_adder_2/a_2010_n530# full_adder_2/cin full_adder_2/a_2510_n620# gnd sky130_fd_pr__nfet_01v8 ad=0.7875 pd=5.9 as=0.945 ps=6.8 w=1.35 l=0.15
X235 full_adder_2/a_3010_n440# full_adder_2/a_2010_n530# gnd gnd sky130_fd_pr__nfet_01v8 ad=0.1575 pd=1.6 as=0 ps=0 w=0.45 l=0.15
X236 full_adder_2/a_1260_40# full_adder_2/a vdd vdd sky130_fd_pr__pfet_01v8 ad=0 pd=0 as=0 ps=0 w=1.8 l=0.15
X237 full_adder_2/a_510_n530# full_adder_2/cin full_adder_2/a_10_40# vdd sky130_fd_pr__pfet_01v8 ad=0 pd=0 as=0 ps=0 w=1.8 l=0.15
X238 full_adder_2/a_1260_n530# full_adder_2/cin gnd gnd sky130_fd_pr__nfet_01v8 ad=1.26 pd=10 as=0 ps=0 w=0.9 l=0.15
X239 full_adder_2/a_2010_n530# full_adder_2/a_510_n530# full_adder_2/a_1260_n530# gnd sky130_fd_pr__nfet_01v8 ad=0 pd=0 as=0 ps=0 w=0.9 l=0.15
X240 full_adder_2/a_2510_40# full_adder_2/b full_adder_2/a_2260_40# vdd sky130_fd_pr__pfet_01v8 ad=1.89 pd=12.2 as=0 ps=0 w=2.7 l=0.15
X241 full_adder_2/a_2010_n530# full_adder_2/a_510_n530# full_adder_2/a_1260_40# vdd sky130_fd_pr__pfet_01v8 ad=1.575 pd=10.4 as=0 ps=0 w=1.8 l=0.15
X242 full_adder_2/a_2260_n620# full_adder_2/a gnd gnd sky130_fd_pr__nfet_01v8 ad=0.945 pd=6.8 as=0 ps=0 w=1.35 l=0.15